6
S6 - optimized with PM7 (MOPAC2016)
S        0.946708476     1.644907415    -0.383574082
S        1.903433551    -0.000856657     0.353713853
S        0.945499306    -1.645953340    -0.383509205
S       -0.947039024    -1.645237838     0.381798116
S       -1.903757329     0.000522819    -0.355505132
S       -0.945834981     1.645617601     0.381706450