 113

 Ar    37.12326      -34.64837      -2.474884    
 Ar    37.12326      -29.69861      -2.474884    
 Ar    37.12326      -24.74883      -2.474884    
 Ar    37.12326      -19.79907      -2.474884    
 Ar    37.12326      -14.84931      -2.474884    
 Ar    37.12326      -9.899535      -2.474884    
 Ar    37.12326      -4.949767      -2.474884    
 Ar    34.64837      -37.12326      -2.474884    
 Ar    34.64837      -32.17349      -2.474884    
 Ar    32.17349      -34.64837      -2.474884    
 Ar    34.64837      -27.22372      -2.474884    
 Ar    32.17349      -29.69861      -2.474884    
 Ar    34.64837      -22.27396      -2.474884    
 Ar    32.17349      -24.74883      -2.474884    
 Ar    34.64837      -17.32418      -2.474884    
 Ar    32.17349      -19.79907      -2.474884    
 Ar    34.64837      -12.37442      -2.474884    
 Ar    32.17349      -14.84931      -2.474884    
 Ar    34.64837      -7.424652      -2.474884    
 Ar    32.17349      -9.899535      -2.474884    
 Ar    34.64837      -2.474884      -2.474884    
 Ar    32.17349      -4.949767      -2.474884    
 Ar    29.69861      -37.12326      -2.474884    
 Ar    29.69861      -32.17349      -2.474884    
 Ar    27.22372      -34.64837      -2.474884    
 Ar    29.69861      -27.22372      -2.474884    
 Ar    27.22372      -29.69861      -2.474884    
 Ar    29.69861      -22.27396      -2.474884    
 Ar    27.22372      -24.74883      -2.474884    
 Ar    29.69861      -17.32418      -2.474884    
 Ar    27.22372      -19.79907      -2.474884    
 Ar    29.69861      -12.37442      -2.474884    
 Ar    27.22372      -14.84931      -2.474884    
 Ar    29.69861      -7.424652      -2.474884    
 Ar    27.22372      -9.899535      -2.474884    
 Ar    29.69861      -2.474884      -2.474884    
 Ar    27.22372      -4.949767      -2.474884    
 Ar    24.74883      -37.12326      -2.474884    
 Ar    24.74883      -32.17349      -2.474884    
 Ar    22.27396      -34.64837      -2.474884    
 Ar    24.74883      -27.22372      -2.474884    
 Ar    22.27396      -29.69861      -2.474884    
 Ar    24.74883      -22.27396      -2.474884    
 Ar    22.27396      -24.74883      -2.474884    
 Ar    24.74883      -17.32418      -2.474884    
 Ar    22.27396      -19.79907      -2.474884    
 Ar    24.74883      -12.37442      -2.474884    
 Ar    22.27396      -14.84931      -2.474884    
 Ar    24.74883      -7.424652      -2.474884    
 Ar    22.27396      -9.899535      -2.474884    
 Ar    24.74883      -2.474884      -2.474884    
 Ar    22.27396      -4.949767      -2.474884    
 Ar    19.79907      -37.12326      -2.474884    
 Ar    19.79907      -32.17349      -2.474884    
 Ar    17.32418      -34.64837      -2.474884    
 Ar    19.79907      -27.22372      -2.474884    
 Ar    17.32418      -29.69861      -2.474884    
 Ar    19.79907      -22.27396      -2.474884    
 Ar    17.32418      -24.74883      -2.474884    
 Ar    19.79907      -17.32418      -2.474884    
 Ar    17.32418      -19.79907      -2.474884    
 Ar    19.79907      -12.37442      -2.474884    
 Ar    17.32418      -14.84931      -2.474884    
 Ar    19.79907      -7.424652      -2.474884    
 Ar    17.32418      -9.899535      -2.474884    
 Ar    19.79907      -2.474884      -2.474884    
 Ar    17.32418      -4.949767      -2.474884    
 Ar    14.84931      -37.12326      -2.474884    
 Ar    14.84931      -32.17349      -2.474884    
 Ar    12.37442      -34.64837      -2.474884    
 Ar    14.84931      -27.22372      -2.474884    
 Ar    12.37442      -29.69861      -2.474884    
 Ar    14.84931      -22.27396      -2.474884    
 Ar    12.37442      -24.74883      -2.474884    
 Ar    14.84931      -17.32418      -2.474884    
 Ar    12.37442      -19.79907      -2.474884    
 Ar    14.84931      -12.37442      -2.474884    
 Ar    12.37442      -14.84931      -2.474884    
 Ar    14.84931      -7.424652      -2.474884    
 Ar    12.37442      -9.899535      -2.474884    
 Ar    14.84931      -2.474884      -2.474884    
 Ar    12.37442      -4.949767      -2.474884    
 Ar    9.899535      -37.12326      -2.474884    
 Ar    9.899535      -32.17349      -2.474884    
 Ar    7.424652      -34.64837      -2.474884    
 Ar    9.899535      -27.22372      -2.474884    
 Ar    7.424652      -29.69861      -2.474884    
 Ar    9.899535      -22.27396      -2.474884    
 Ar    7.424652      -24.74883      -2.474884    
 Ar    9.899535      -17.32418      -2.474884    
 Ar    7.424652      -19.79907      -2.474884    
 Ar    9.899535      -12.37442      -2.474884    
 Ar    7.424652      -14.84931      -2.474884    
 Ar    9.899535      -7.424652      -2.474884    
 Ar    7.424652      -9.899535      -2.474884    
 Ar    9.899535      -2.474884      -2.474884    
 Ar    7.424652      -4.949767      -2.474884    
 Ar    4.949767      -37.12326      -2.474884    
 Ar    4.949767      -32.17349      -2.474884    
 Ar    2.474884      -34.64837      -2.474884    
 Ar    4.949767      -27.22372      -2.474884    
 Ar    2.474884      -29.69861      -2.474884    
 Ar    4.949767      -22.27396      -2.474884    
 Ar    2.474884      -24.74883      -2.474884    
 Ar    4.949767      -17.32418      -2.474884    
 Ar    2.474884      -19.79907      -2.474884    
 Ar    4.949767      -12.37442      -2.474884    
 Ar    2.474884      -14.84931      -2.474884    
 Ar    4.949767      -7.424652      -2.474884    
 Ar    2.474884      -9.899535      -2.474884    
 Ar    4.949767      -2.474884      -2.474884    
 Ar    2.474884      -4.949767      -2.474884    
 XX    19.79907      -19.79907      -2.474884    
